/*--------------------------------*- C++ -*----------------------------------*\
| =========                 |                                                 |
| \\      /  F ield         | OpenFOAM: The Open Source CFD Toolbox           |
|  \\    /   O peration     | Version:  v2012                                 |
|   \\  /    A nd           | Website:  www.openfoam.com                      |
|    \\/     M anipulation  |                                                 |
\*---------------------------------------------------------------------------*/
FoamFile
{
    version     2.0;
    format      ascii;
    class       polyBoundaryMesh;
    location    "constant/polyMesh";
    object      boundary;
}
// * * * * * * * * * * * * * * * * * * * * * * * * * * * * * * * * * * * * * //

8
(
    frontback
    {
        type            empty;
        inGroups        1(empty);
        nFaces          20084;
        startFace       14885;
    }
    topbottom
    {
        type            patch;
        physicalType    patch;
        nFaces          94;
        startFace       34969;
    }
    outlet
    {
        type            patch;
        physicalType    patch;
        nFaces          34;
        startFace       35063;
    }
    inlet
    {
        type            patch;
        physicalType    patch;
        nFaces          0;
        startFace       35097;
    }
    walls
    {
        type            wall;
        inGroups        1(wall);
        nFaces          0;
        startFace       35097;
    }
    procBoundary1to0
    {
        type            processor;
        inGroups        1(processor);
        nFaces          80;
        startFace       35097;
        matchTolerance  0.0001;
        transform       unknown;
        myProcNo        1;
        neighbProcNo    0;
    }
    procBoundary1to2
    {
        type            processor;
        inGroups        1(processor);
        nFaces          1;
        startFace       35177;
        matchTolerance  0.0001;
        transform       unknown;
        myProcNo        1;
        neighbProcNo    2;
    }
    procBoundary1to3
    {
        type            processor;
        inGroups        1(processor);
        nFaces          147;
        startFace       35178;
        matchTolerance  0.0001;
        transform       unknown;
        myProcNo        1;
        neighbProcNo    3;
    }
)

// ************************************************************************* //
