/*--------------------------------*- C++ -*----------------------------------*\
| =========                 |                                                 |
| \\      /  F ield         | OpenFOAM: The Open Source CFD Toolbox           |
|  \\    /   O peration     | Version:  v2012                                 |
|   \\  /    A nd           | Website:  www.openfoam.com                      |
|    \\/     M anipulation  |                                                 |
\*---------------------------------------------------------------------------*/
FoamFile
{
    version     2.0;
    format      ascii;
    class       polyBoundaryMesh;
    location    "constant/polyMesh";
    object      boundary;
}
// * * * * * * * * * * * * * * * * * * * * * * * * * * * * * * * * * * * * * //

7
(
    frontback
    {
        type            empty;
        inGroups        1(empty);
        nFaces          37516;
        startFace       27907;
    }
    topbottom
    {
        type            patch;
        physicalType    patch;
        nFaces          48;
        startFace       65423;
    }
    outlet
    {
        type            patch;
        physicalType    patch;
        nFaces          0;
        startFace       65471;
    }
    inlet
    {
        type            patch;
        physicalType    patch;
        nFaces          41;
        startFace       65471;
    }
    walls
    {
        type            wall;
        inGroups        1(wall);
        nFaces          129;
        startFace       65512;
    }
    procBoundary0to1
    {
        type            processor;
        inGroups        1(processor);
        nFaces          123;
        startFace       65641;
        matchTolerance  0.0001;
        transform       unknown;
        myProcNo        0;
        neighbProcNo    1;
    }
    procBoundary0to2
    {
        type            processor;
        inGroups        1(processor);
        nFaces          119;
        startFace       65764;
        matchTolerance  0.0001;
        transform       unknown;
        myProcNo        0;
        neighbProcNo    2;
    }
)

// ************************************************************************* //
