/*--------------------------------*- C++ -*----------------------------------*\
| =========                 |                                                 |
| \\      /  F ield         | OpenFOAM: The Open Source CFD Toolbox           |
|  \\    /   O peration     | Version:  v2012                                 |
|   \\  /    A nd           | Website:  www.openfoam.com                      |
|    \\/     M anipulation  |                                                 |
\*---------------------------------------------------------------------------*/
FoamFile
{
    version     2.0;
    format      ascii;
    class       polyBoundaryMesh;
    location    "constant/polyMesh";
    object      boundary;
}
// * * * * * * * * * * * * * * * * * * * * * * * * * * * * * * * * * * * * * //

8
(
    frontback
    {
        type            empty;
        inGroups        1(empty);
        nFaces          36710;
        startFace       27274;
    }
    topbottom
    {
        type            patch;
        physicalType    patch;
        nFaces          48;
        startFace       63984;
    }
    outlet
    {
        type            patch;
        physicalType    patch;
        nFaces          0;
        startFace       64032;
    }
    inlet
    {
        type            patch;
        physicalType    patch;
        nFaces          43;
        startFace       64032;
    }
    walls
    {
        type            wall;
        inGroups        1(wall);
        nFaces          171;
        startFace       64075;
    }
    procBoundary2to0
    {
        type            processor;
        inGroups        1(processor);
        nFaces          119;
        startFace       64246;
        matchTolerance  0.0001;
        transform       unknown;
        myProcNo        2;
        neighbProcNo    0;
    }
    procBoundary2to1
    {
        type            processor;
        inGroups        1(processor);
        nFaces          1;
        startFace       64365;
        matchTolerance  0.0001;
        transform       unknown;
        myProcNo        2;
        neighbProcNo    1;
    }
    procBoundary2to3
    {
        type            processor;
        inGroups        1(processor);
        nFaces          135;
        startFace       64366;
        matchTolerance  0.0001;
        transform       unknown;
        myProcNo        2;
        neighbProcNo    3;
    }
)

// ************************************************************************* //
