/*--------------------------------*- C++ -*----------------------------------*\
| =========                 |                                                 |
| \\      /  F ield         | OpenFOAM: The Open Source CFD Toolbox           |
|  \\    /   O peration     | Version:  v2012                                 |
|   \\  /    A nd           | Website:  www.openfoam.com                      |
|    \\/     M anipulation  |                                                 |
\*---------------------------------------------------------------------------*/
FoamFile
{
    version     2.0;
    format      ascii;
    class       polyBoundaryMesh;
    location    "constant/polyMesh";
    object      boundary;
}
// * * * * * * * * * * * * * * * * * * * * * * * * * * * * * * * * * * * * * //

8
(
    frontback
    {
        type            empty;
        inGroups        1(empty);
        nFaces          20084;
        startFace       14907;
    }
    topbottom
    {
        type            patch;
        physicalType    patch;
        nFaces          40;
        startFace       34991;
    }
    outlet
    {
        type            patch;
        physicalType    patch;
        nFaces          0;
        startFace       35031;
    }
    inlet
    {
        type            patch;
        physicalType    patch;
        nFaces          33;
        startFace       35031;
    }
    walls
    {
        type            wall;
        inGroups        1(wall);
        nFaces          0;
        startFace       35064;
    }
    procBoundary2to0
    {
        type            processor;
        inGroups        1(processor);
        nFaces          165;
        startFace       35064;
        matchTolerance  0.0001;
        transform       unknown;
        myProcNo        2;
        neighbProcNo    0;
    }
    procBoundary2to1
    {
        type            processor;
        inGroups        1(processor);
        nFaces          1;
        startFace       35229;
        matchTolerance  0.0001;
        transform       unknown;
        myProcNo        2;
        neighbProcNo    1;
    }
    procBoundary2to3
    {
        type            processor;
        inGroups        1(processor);
        nFaces          73;
        startFace       35230;
        matchTolerance  0.0001;
        transform       unknown;
        myProcNo        2;
        neighbProcNo    3;
    }
)

// ************************************************************************* //
